<configuration>
    <input>
       <net-file value="map.net.xml" />
       <route-files value="domanda.rou.xml" />
       <additional-files value="additional.add.xml" />
    </input>

    <traci_server>
        <remote-port value="8873"/>
    </traci_server>

</configuration>