<?xml version="1.0" encoding="UTF-8"?>

<!-- generated on 05/07/21 10:59:52 by Eclipse SUMO netedit Version 1.7.0
<configuration xmlns:xsi="http://www.w3.org/2001/XMLSchema-instance" xsi:noNamespaceSchemaLocation="http://sumo.dlr.de/xsd/netconvertConfiguration.xsd">

    <input>
        <sumo-net-file value="C:\Users\Luca\Desktop\LAVORO\UNIVERSITA\CORSO_TGST\2021\LEZIONE_05_05_2021\MFD_per_Lezione\map.net.xml"/>
    </input>

    <output>
        <output-file value="C:\Users\Luca\Desktop\LAVORO\UNIVERSITA\CORSO_TGST\2021\LEZIONE_05_05_2021\MFD_per_Lezione\map.net.xml"/>
    </output>

    <processing>
        <geometry.min-radius.fix.railways value="false"/>
        <geometry.max-grade.fix value="false"/>
        <offset.disable-normalization value="true"/>
        <lefthand value="false"/>
    </processing>

    <junctions>
        <no-turnarounds value="true"/>
        <junctions.corner-detail value="0"/>
        <junctions.limit-turn-speed value="-1"/>
        <rectangular-lane-cut value="false"/>
    </junctions>

    <pedestrian>
        <walkingareas value="false"/>
    </pedestrian>

    <report>
        <aggregate-warnings value="5"/>
    </report>

</configuration>
-->

<net version="1.6" xmlns:xsi="http://www.w3.org/2001/XMLSchema-instance" xsi:noNamespaceSchemaLocation="http://sumo.dlr.de/xsd/net_file.xsd">

    <location netOffset="-457030.16,-4529426.39" convBoundary="0.00,0.00,4337.97,3259.44" origBoundary="14.489503,40.915001,14.541189,40.944179" projParameter="+proj=utm +zone=33 +ellps=WGS84 +datum=WGS84 +units=m +no_defs"/>

    <type id="highway.bridleway" priority="1" numLanes="1" speed="2.78" allow="pedestrian" oneway="1" width="2.00"/>
    <type id="highway.bus_guideway" priority="1" numLanes="1" speed="8.33" allow="bus" oneway="1"/>
    <type id="highway.cycleway" priority="1" numLanes="1" speed="5.56" allow="bicycle" oneway="0" width="1.00"/>
    <type id="highway.footway" priority="1" numLanes="1" speed="2.78" allow="pedestrian" oneway="1" width="2.00"/>
    <type id="highway.ford" priority="1" numLanes="1" speed="2.78" allow="army" oneway="0"/>
    <type id="highway.living_street" priority="3" numLanes="1" speed="2.78" disallow="tram rail_urban rail rail_electric ship" oneway="0"/>
    <type id="highway.motorway" priority="13" numLanes="2" speed="44.44" allow="private emergency authority army vip passenger hov taxi bus coach delivery truck trailer motorcycle evehicle custom1 custom2" oneway="1"/>
    <type id="highway.motorway_link" priority="12" numLanes="1" speed="22.22" allow="private emergency authority army vip passenger hov taxi bus coach delivery truck trailer motorcycle evehicle custom1 custom2" oneway="1"/>
    <type id="highway.path" priority="1" numLanes="1" speed="2.78" allow="pedestrian bicycle" oneway="1" width="2.00"/>
    <type id="highway.pedestrian" priority="1" numLanes="1" speed="2.78" allow="pedestrian" oneway="1" width="2.00"/>
    <type id="highway.primary" priority="9" numLanes="2" speed="27.78" disallow="tram rail_urban rail rail_electric ship" oneway="0"/>
    <type id="highway.primary_link" priority="8" numLanes="1" speed="22.22" disallow="tram rail_urban rail rail_electric ship" oneway="0"/>
    <type id="highway.raceway" priority="14" numLanes="2" speed="83.33" allow="vip" oneway="0"/>
    <type id="highway.residential" priority="4" numLanes="1" speed="13.89" disallow="tram rail_urban rail rail_electric ship" oneway="0"/>
    <type id="highway.secondary" priority="7" numLanes="2" speed="27.78" disallow="tram rail_urban rail rail_electric ship" oneway="0"/>
    <type id="highway.secondary_link" priority="6" numLanes="1" speed="22.22" disallow="tram rail_urban rail rail_electric ship" oneway="0"/>
    <type id="highway.service" priority="2" numLanes="1" speed="5.56" allow="pedestrian delivery bicycle" oneway="0"/>
    <type id="highway.services" priority="1" numLanes="1" speed="8.33" disallow="tram rail_urban rail rail_electric ship" oneway="0"/>
    <type id="highway.stairs" priority="1" numLanes="1" speed="1.39" allow="pedestrian" oneway="1" width="2.00"/>
    <type id="highway.step" priority="1" numLanes="1" speed="1.39" allow="pedestrian" oneway="1" width="2.00"/>
    <type id="highway.steps" priority="1" numLanes="1" speed="1.39" allow="pedestrian" oneway="1" width="2.00"/>
    <type id="highway.tertiary" priority="6" numLanes="1" speed="22.22" disallow="tram rail_urban rail rail_electric ship" oneway="0"/>
    <type id="highway.tertiary_link" priority="5" numLanes="1" speed="22.22" disallow="tram rail_urban rail rail_electric ship" oneway="0"/>
    <type id="highway.track" priority="1" numLanes="1" speed="5.56" disallow="tram rail_urban rail rail_electric ship" oneway="0"/>
    <type id="highway.trunk" priority="11" numLanes="2" speed="27.78" disallow="pedestrian bicycle tram rail_urban rail rail_electric ship" oneway="0"/>
    <type id="highway.trunk_link" priority="10" numLanes="1" speed="22.22" disallow="pedestrian bicycle tram rail_urban rail rail_electric ship" oneway="0"/>
    <type id="highway.unclassified" priority="5" numLanes="1" speed="13.89" disallow="tram rail_urban rail rail_electric ship" oneway="0"/>
    <type id="highway.unsurfaced" priority="1" numLanes="1" speed="8.33" disallow="tram rail_urban rail rail_electric ship" oneway="0"/>
    <type id="railway.light_rail" priority="15" numLanes="1" speed="27.78" allow="rail_urban" oneway="1"/>
    <type id="railway.preserved" priority="15" numLanes="1" speed="27.78" allow="rail" oneway="1"/>
    <type id="railway.rail" priority="15" numLanes="1" speed="83.33" allow="rail rail_electric" oneway="1"/>
    <type id="railway.subway" priority="15" numLanes="1" speed="27.78" allow="rail_urban" oneway="1"/>
    <type id="railway.tram" priority="15" numLanes="1" speed="13.89" allow="tram" oneway="1"/>

    <edge id=":1249562617_0" function="internal">
        <lane id=":1249562617_0_0" index="0" disallow="tram rail_urban rail rail_electric rail_fast ship" speed="13.89" length="9.53" shape="3414.39,1154.45 3411.62,1153.71 3409.56,1154.06 3408.23,1155.50 3407.61,1158.03"/>
    </edge>
    <edge id=":1249562617_1" function="internal">
        <lane id=":1249562617_1_0" index="0" disallow="tram rail_urban rail rail_electric rail_fast ship" speed="13.89" length="17.50" shape="3414.39,1154.45 3410.63,1152.72 3406.57,1150.53 3402.64,1148.13 3399.26,1145.73"/>
    </edge>
    <edge id=":1249562617_2" function="internal">
        <lane id=":1249562617_2_0" index="0" disallow="tram rail_urban rail rail_electric rail_fast ship" speed="13.89" length="16.83" shape="3414.39,1154.45 3411.03,1152.38 3408.70,1149.37 3407.41,1145.40 3407.16,1140.49"/>
    </edge>
    <edge id=":1249562617_3" function="internal">
        <lane id=":1249562617_3_0" index="0" disallow="tram rail_urban rail rail_electric rail_fast ship" speed="13.89" length="9.36" shape="3401.23,1143.21 3403.69,1144.68 3405.50,1144.71 3406.66,1143.32 3407.16,1140.49"/>
    </edge>
    <edge id=":1249562617_4" function="internal">
        <lane id=":1249562617_4_0" index="0" disallow="tram rail_urban rail rail_electric rail_fast ship" speed="13.89" length="16.85" shape="3401.23,1143.21 3404.31,1146.23 3406.40,1149.71 3407.50,1153.65 3407.61,1158.03"/>
    </edge>
    <edge id=":1249562617_5" function="internal">
        <lane id=":1249562617_5_0" index="0" disallow="tram rail_urban rail rail_electric rail_fast ship" speed="13.89" length="13.67" shape="3404.42,1157.76 3404.33,1154.20 3403.45,1151.00 3401.75,1148.18 3399.26,1145.73"/>
    </edge>
    <edge id=":1249562617_6" function="internal">
        <lane id=":1249562617_6_0" index="0" disallow="tram rail_urban rail rail_electric rail_fast ship" speed="13.89" length="17.49" shape="3404.42,1157.76 3407.16,1140.49"/>
    </edge>
    <edge id=":1249562628_0" function="internal">
        <lane id=":1249562628_0_0" index="0" disallow="tram rail_urban rail rail_electric rail_fast ship" speed="13.89" length="9.56" shape="3488.46,1178.81 3487.71,1176.46 3486.27,1175.12 3484.11,1174.82 3481.25,1175.53"/>
    </edge>
    <edge id=":1249562628_1" function="internal">
        <lane id=":1249562628_1_0" index="0" disallow="tram rail_urban rail rail_electric rail_fast ship" speed="13.89" length="8.66" shape="3488.46,1178.81 3488.35,1176.52 3488.69,1174.41 3489.46,1172.47 3490.67,1170.71"/>
    </edge>
    <edge id=":1249562657_0" function="internal">
        <lane id=":1249562657_0_0" index="0" disallow="tram rail_urban rail rail_electric rail_fast ship" speed="13.89" length="4.67" shape="3100.02,1415.36 3099.94,1416.80 3099.45,1417.55 3098.56,1417.61 3097.26,1416.98"/>
    </edge>
    <edge id=":1249562694_0" function="internal">
        <lane id=":1249562694_0_0" index="0" allow="pedestrian delivery bicycle" speed="11.11" length="7.21" shape="3558.09,1294.30 3556.95,1296.09 3555.97,1297.19 3554.73,1298.01 3552.83,1298.99"/>
    </edge>
    <edge id=":1249562694_1" function="internal">
        <lane id=":1249562694_1_0" index="0" allow="pedestrian delivery bicycle" speed="11.11" length="5.69" shape="3558.09,1294.30 3557.15,1295.41 3556.04,1295.85 3554.74,1295.61 3553.27,1294.70"/>
    </edge>
    <edge id=":1249562759_0" function="internal">
        <lane id=":1249562759_0_0" index="0" disallow="tram rail_urban rail rail_electric rail_fast ship" speed="13.89" length="6.67" shape="3527.09,1269.38 3525.60,1268.08 3524.61,1267.15 3523.68,1266.17 3522.34,1264.71"/>
    </edge>
    <edge id=":1249562759_1" function="internal">
        <lane id=":1249562759_1_0" index="0" allow="pedestrian delivery bicycle" speed="11.11" length="5.65" shape="3526.58,1263.94 3525.75,1265.38 3524.77,1265.99 3523.63,1265.77 3522.34,1264.71"/>
    </edge>
    <edge id=":1249562808_0" function="internal">
        <lane id=":1249562808_0_0" index="0" disallow="tram rail_urban rail rail_electric rail_fast ship" speed="13.89" length="5.43" shape="3474.09,1238.35 3471.95,1236.85 3470.66,1235.11 3470.53,1234.48"/>
    </edge>
    <edge id=":1249562808_2" function="internal">
        <lane id=":1249562808_2_0" index="0" disallow="tram rail_urban rail rail_electric rail_fast ship" speed="13.89" length="3.61" shape="3470.53,1234.48 3470.25,1233.15 3470.69,1230.95"/>
    </edge>
    <edge id=":1249562808_1" function="internal">
        <lane id=":1249562808_1_0" index="0" disallow="tram rail_urban rail rail_electric rail_fast ship" speed="13.89" length="9.20" shape="3463.59,1235.04 3465.90,1235.35 3467.85,1234.76 3469.45,1233.30 3470.69,1230.95"/>
    </edge>
    <edge id=":1249562853_0" function="internal">
        <lane id=":1249562853_0_0" index="0" disallow="tram rail_urban rail rail_electric rail_fast ship" speed="13.89" length="8.17" shape="3404.99,1213.22 3405.23,1215.21 3406.12,1216.83 3407.64,1218.10 3409.79,1219.02"/>
    </edge>
    <edge id=":1249562853_1" function="internal">
        <lane id=":1249562853_1_0" index="0" disallow="tram rail_urban rail rail_electric rail_fast ship" speed="13.89" length="9.48" shape="3404.99,1213.22 3404.68,1222.70"/>
    </edge>
    <edge id=":1249562853_2" function="internal">
        <lane id=":1249562853_2_0" index="0" disallow="tram rail_urban rail rail_electric rail_fast ship" speed="13.89" length="9.48" shape="3401.48,1222.60 3401.79,1213.12"/>
    </edge>
    <edge id=":1249562853_3" function="internal">
        <lane id=":1249562853_3_0" index="0" disallow="tram rail_urban rail rail_electric rail_fast ship" speed="13.89" length="4.05" shape="3401.48,1222.60 3402.07,1220.12 3403.19,1219.12"/>
    </edge>
    <edge id=":1249562853_4" function="internal">
        <lane id=":1249562853_4_0" index="0" disallow="tram rail_urban rail rail_electric rail_fast ship" speed="13.89" length="6.85" shape="3403.19,1219.12 3403.65,1218.70 3406.23,1218.33 3409.79,1219.02"/>
    </edge>
    <edge id=":1249562875_0" function="internal">
        <lane id=":1249562875_0_0" index="0" disallow="tram rail_urban rail rail_electric rail_fast ship" speed="13.89" length="21.39" shape="3441.74,1008.79 3434.45,988.68"/>
    </edge>
    <edge id=":1249562875_1" function="internal">
        <lane id=":1249562875_1_0" index="0" disallow="tram rail_urban rail rail_electric rail_fast ship" speed="13.89" length="21.88" shape="3441.74,1008.79 3440.84,1004.15 3440.91,998.05 3441.62,991.91 3442.64,987.15"/>
    </edge>
    <edge id=":1249562875_2" function="internal">
        <lane id=":1249562875_2_0" index="0" disallow="tram rail_urban rail rail_electric rail_fast ship" speed="13.89" length="9.42" shape="3437.46,987.59 3438.87,990.30 3440.20,991.13 3441.46,990.08 3442.64,987.15"/>
    </edge>
    <edge id=":1249562875_3" function="internal">
        <lane id=":1249562875_3_0" index="0" disallow="tram rail_urban rail rail_electric rail_fast ship" speed="13.89" length="21.45" shape="3437.46,987.59 3444.78,1007.76"/>
    </edge>
    <edge id=":1249562875_4" function="internal">
        <lane id=":1249562875_4_0" index="0" disallow="tram rail_urban rail rail_electric rail_fast ship" speed="13.89" length="19.98" shape="3434.96,1007.83 3436.71,1004.45 3437.21,1000.13 3436.45,994.87 3434.45,988.68"/>
    </edge>
    <edge id=":1249562875_5" function="internal">
        <lane id=":1249562875_5_0" index="0" disallow="tram rail_urban rail rail_electric rail_fast ship" speed="13.89" length="22.15" shape="3434.96,1007.83 3437.29,1003.64 3439.45,997.84 3441.29,991.86 3442.64,987.15"/>
    </edge>
    <edge id=":1249562875_6" function="internal">
        <lane id=":1249562875_6_0" index="0" disallow="tram rail_urban rail rail_electric rail_fast ship" speed="13.89" length="13.02" shape="3434.96,1007.83 3437.98,1004.86 3440.63,1003.86 3442.90,1004.83 3444.78,1007.76"/>
    </edge>
    <edge id=":1704631793_0" function="internal">
        <lane id=":1704631793_0_0" index="0" disallow="tram rail_urban rail rail_electric rail_fast ship" speed="13.89" length="9.04" shape="2929.66,1043.84 2927.55,1045.21 2926.47,1046.89 2926.41,1048.90 2927.38,1051.22"/>
    </edge>
    <edge id=":1704631793_1" function="internal">
        <lane id=":1704631793_1_0" index="0" disallow="tram rail_urban rail rail_electric rail_fast ship" speed="13.89" length="11.43" shape="2929.66,1043.84 2926.76,1045.16 2924.48,1046.24 2922.26,1047.43 2919.53,1049.09"/>
    </edge>
    <edge id=":1704631793_2" function="internal">
        <lane id=":1704631793_2_0" index="0" disallow="tram rail_urban rail rail_electric rail_fast ship" speed="13.89" length="11.86" shape="2917.82,1046.39 2920.60,1044.70 2922.95,1043.44 2925.36,1042.29 2928.33,1040.93"/>
    </edge>
    <edge id=":1704631793_3" function="internal">
        <lane id=":1704631793_3_0" index="0" disallow="tram rail_urban rail rail_electric rail_fast ship" speed="13.89" length="4.14" shape="2917.82,1046.39 2920.23,1045.54 2921.77,1045.88"/>
    </edge>
    <edge id=":1704631793_4" function="internal">
        <lane id=":1704631793_4_0" index="0" disallow="tram rail_urban rail rail_electric rail_fast ship" speed="13.89" length="7.95" shape="2921.77,1045.88 2922.62,1046.06 2925.01,1047.95 2927.38,1051.22"/>
    </edge>
    <edge id=":1704634150_0" function="internal">
        <lane id=":1704634150_0_0" index="0" disallow="tram rail_urban rail rail_electric rail_fast ship" speed="13.89" length="10.84" shape="2961.44,1097.64 2958.72,1099.14 2956.72,1100.32 2954.85,1101.68 2952.52,1103.71"/>
    </edge>
    <edge id=":1704634150_1" function="internal">
        <lane id=":1704634150_1_0" index="0" disallow="tram rail_urban rail rail_electric rail_fast ship" speed="13.89" length="8.84" shape="2952.34,1092.84 2953.86,1094.71 2955.62,1095.67 2957.63,1095.71 2959.88,1094.84"/>
    </edge>
    <edge id=":1704634150_2" function="internal">
        <lane id=":1704634150_2_0" index="0" disallow="tram rail_urban rail rail_electric rail_fast ship" speed="13.89" length="7.68" shape="2952.34,1092.84 2953.95,1096.18 2954.51,1099.11 2954.33,1100.07"/>
    </edge>
    <edge id=":1704634150_3" function="internal">
        <lane id=":1704634150_3_0" index="0" disallow="tram rail_urban rail rail_electric rail_fast ship" speed="13.89" length="4.16" shape="2954.33,1100.07 2954.04,1101.62 2952.52,1103.71"/>
    </edge>
    <edge id=":1704635278_0" function="internal">
        <lane id=":1704635278_0_0" index="0" disallow="tram rail_urban rail rail_electric rail_fast ship" speed="13.89" length="9.04" shape="3043.03,975.42 3041.22,973.66 3039.34,972.98 3037.37,973.37 3035.32,974.84"/>
    </edge>
    <edge id=":1704635278_1" function="internal">
        <lane id=":1704635278_1_0" index="0" disallow="tram rail_urban rail rail_electric rail_fast ship" speed="13.89" length="14.36" shape="3043.03,975.42 3041.00,971.94 3040.40,968.63 3041.24,965.50 3043.51,962.53"/>
    </edge>
    <edge id=":1704635278_2" function="internal">
        <lane id=":1704635278_2_0" index="0" disallow="tram rail_urban rail rail_electric rail_fast ship" speed="13.89" length="9.61" shape="3045.73,964.84 3044.26,966.79 3043.73,968.88 3044.17,971.10 3045.56,973.46"/>
    </edge>
    <edge id=":1704635278_3" function="internal">
        <lane id=":1704635278_3_0" index="0" disallow="tram rail_urban rail rail_electric rail_fast ship" speed="13.89" length="14.43" shape="3045.73,964.84 3035.32,974.84"/>
    </edge>
    <edge id=":1704635278_4" function="internal">
        <lane id=":1704635278_4_0" index="0" disallow="tram rail_urban rail rail_electric rail_fast ship" speed="13.89" length="14.42" shape="3033.11,972.52 3043.51,962.53"/>
    </edge>
    <edge id=":1704635278_5" function="internal">
        <lane id=":1704635278_5_0" index="0" disallow="tram rail_urban rail rail_electric rail_fast ship" speed="13.89" length="5.95" shape="3033.11,972.52 3036.42,970.16 3038.26,969.79"/>
    </edge>
    <edge id=":1704635278_6" function="internal">
        <lane id=":1704635278_6_0" index="0" disallow="tram rail_urban rail rail_electric rail_fast ship" speed="13.89" length="8.67" shape="3038.26,969.79 3039.60,969.53 3042.65,970.63 3045.56,973.46"/>
    </edge>
    <edge id=":1704639549_0" function="internal">
        <lane id=":1704639549_0_0" index="0" disallow="tram rail_urban rail rail_electric rail_fast ship" speed="13.89" length="4.54" shape="3073.35,1188.69 3073.63,1186.10 3074.68,1184.47"/>
    </edge>
    <edge id=":1704639549_2" function="internal">
        <lane id=":1704639549_2_0" index="0" disallow="tram rail_urban rail rail_electric rail_fast ship" speed="13.89" length="4.54" shape="3074.68,1184.47 3076.50,1183.80 3079.09,1184.09"/>
    </edge>
    <edge id=":1704639549_1" function="internal">
        <lane id=":1704639549_1_0" index="0" disallow="tram rail_urban rail rail_electric rail_fast ship" speed="13.89" length="11.31" shape="3068.18,1181.11 3079.09,1184.09"/>
    </edge>
    <edge id=":1704641029_0" function="internal">
        <lane id=":1704641029_0_0" index="0" disallow="tram rail_urban rail rail_electric rail_fast ship" speed="13.89" length="11.46" shape="3088.02,1295.53 3085.00,1296.60 3082.58,1297.36 3080.13,1297.99 3077.00,1298.65"/>
    </edge>
    <edge id=":1704641029_1" function="internal">
        <lane id=":1704641029_1_0" index="0" disallow="tram rail_urban rail rail_electric rail_fast ship" speed="13.89" length="9.06" shape="3088.02,1295.53 3085.51,1296.05 3083.60,1295.58 3082.29,1294.11 3081.57,1291.65"/>
    </edge>
    <edge id=":1704643733_0" function="internal">
        <lane id=":1704643733_0_0" index="0" disallow="tram rail_urban rail rail_electric rail_fast ship" speed="13.89" length="8.11" shape="3199.13,1271.79 3198.56,1269.63 3197.48,1268.06 3195.90,1267.07 3193.83,1266.67"/>
    </edge>
    <edge id=":1704643733_1" function="internal">
        <lane id=":1704643733_1_0" index="0" disallow="tram rail_urban rail rail_electric rail_fast ship" speed="13.89" length="9.57" shape="3203.37,1266.26 3200.55,1266.62 3198.61,1266.78 3196.66,1266.79 3193.83,1266.67"/>
    </edge>
    <edge id=":1781532629_0" function="internal">
        <lane id=":1781532629_0_0" index="0" disallow="tram rail_urban rail rail_electric rail_fast ship" speed="13.89" length="10.90" shape="3218.90,1270.38 3217.19,1267.91 3215.14,1266.25 3212.76,1265.40 3210.04,1265.38"/>
    </edge>
    <edge id=":1781532629_1" function="internal">
        <lane id=":1781532629_1_0" index="0" disallow="tram rail_urban rail rail_electric rail_fast ship" speed="13.89" length="12.40" shape="3218.90,1270.38 3217.35,1267.42 3216.10,1264.85 3214.95,1262.24 3213.68,1259.14"/>
    </edge>
    <edge id=":1781532629_2" function="internal">
        <lane id=":1781532629_2_0" index="0" disallow="tram rail_urban rail rail_electric rail_fast ship" speed="11.11" length="11.76" shape="3218.90,1270.38 3218.15,1267.81 3218.82,1265.55 3220.91,1263.60 3224.41,1261.97"/>
    </edge>
    <edge id=":1781532629_3" function="internal">
        <lane id=":1781532629_3_0" index="0" disallow="tram rail_urban rail rail_electric rail_fast ship" speed="11.11" length="9.87" shape="3216.65,1257.95 3218.02,1260.42 3219.77,1261.91 3221.90,1262.43 3224.41,1261.97"/>
    </edge>
    <edge id=":1781532629_4" function="internal">
        <lane id=":1781532629_4_0" index="0" disallow="tram rail_urban rail rail_electric rail_fast ship" speed="13.89" length="12.05" shape="3216.65,1257.95 3217.89,1260.99 3219.00,1263.50 3220.20,1265.96 3221.72,1268.87"/>
    </edge>
    <edge id=":1781532629_5" function="internal">
        <lane id=":1781532629_5_0" index="0" disallow="tram rail_urban rail rail_electric rail_fast ship" speed="13.89" length="11.98" shape="3216.65,1257.95 3217.17,1260.75 3216.24,1262.92 3213.87,1264.46 3210.04,1265.38"/>
    </edge>
    <edge id=":1888177698_0" function="internal">
        <lane id=":1888177698_0_0" index="0" disallow="tram rail_urban rail rail_electric rail_fast ship" speed="13.89" length="14.69" shape="2910.34,1688.70 2905.28,1674.91"/>
    </edge>
    <edge id=":1888177698_1" function="internal">
        <lane id=":1888177698_1_0" index="0" disallow="tram rail_urban rail rail_electric rail_fast ship" speed="13.89" length="6.27" shape="2910.34,1688.70 2909.40,1684.80 2909.80,1682.57"/>
    </edge>
    <edge id=":1888177698_6" function="internal">
        <lane id=":1888177698_6_0" index="0" disallow="tram rail_urban rail rail_electric rail_fast ship" speed="13.89" length="8.21" shape="2909.80,1682.57 2909.97,1681.62 2912.06,1679.16 2915.67,1677.41"/>
    </edge>
    <edge id=":1888177698_2" function="internal">
        <lane id=":1888177698_2_0" index="0" disallow="tram rail_urban rail rail_electric rail_fast ship" speed="13.89" length="9.04" shape="2916.64,1680.46 2914.39,1681.55 2913.08,1683.09 2912.72,1685.07 2913.31,1687.50"/>
    </edge>
    <edge id=":1888177698_3" function="internal">
        <lane id=":1888177698_3_0" index="0" disallow="tram rail_urban rail rail_electric rail_fast ship" speed="13.89" length="14.37" shape="2916.64,1680.46 2912.70,1681.14 2909.50,1680.44 2907.03,1678.36 2905.28,1674.91"/>
    </edge>
    <edge id=":1888177698_4" function="internal">
        <lane id=":1888177698_4_0" index="0" disallow="tram rail_urban rail rail_electric rail_fast ship" speed="13.89" length="9.26" shape="2908.32,1673.89 2909.44,1676.10 2911.04,1677.42 2913.11,1677.86 2915.67,1677.41"/>
    </edge>
    <edge id=":1888177698_5" function="internal">
        <lane id=":1888177698_5_0" index="0" disallow="tram rail_urban rail rail_electric rail_fast ship" speed="13.89" length="14.50" shape="2908.32,1673.89 2913.31,1687.50"/>
    </edge>
    <edge id=":1888205076_0" function="internal">
        <lane id=":1888205076_0_0" index="0" disallow="tram rail_urban rail rail_electric rail_fast ship" speed="13.89" length="14.74" shape="3704.88,1160.42 3704.52,1164.94 3705.00,1168.70 3706.32,1171.71 3708.48,1173.96"/>
    </edge>
    <edge id=":1888205076_1" function="internal">
        <lane id=":1888205076_1_0" index="0" disallow="tram rail_urban rail rail_electric rail_fast ship" speed="13.89" length="16.67" shape="3704.88,1160.42 3701.78,1176.80"/>
    </edge>
    <edge id=":1888205076_2" function="internal">
        <lane id=":1888205076_2_0" index="0" disallow="tram rail_urban rail rail_electric rail_fast ship" speed="13.89" length="16.34" shape="3704.88,1160.42 3703.47,1165.04 3701.11,1167.39 3697.77,1167.46 3693.48,1165.24"/>
    </edge>
    <edge id=":1888205076_3" function="internal">
        <lane id=":1888205076_3_0" index="0" disallow="tram rail_urban rail rail_electric rail_fast ship" speed="13.89" length="9.18" shape="3695.31,1162.62 3697.73,1163.87 3699.60,1163.83 3700.93,1162.51 3701.72,1159.91"/>
    </edge>
    <edge id=":1888205076_4" function="internal">
        <lane id=":1888205076_4_0" index="0" disallow="tram rail_urban rail rail_electric rail_fast ship" speed="13.89" length="17.38" shape="3695.31,1162.62 3698.53,1165.19 3701.91,1168.27 3705.29,1171.36 3708.48,1173.96"/>
    </edge>
    <edge id=":1888205076_5" function="internal">
        <lane id=":1888205076_5_0" index="0" disallow="tram rail_urban rail rail_electric rail_fast ship" speed="13.89" length="16.60" shape="3695.31,1162.62 3698.85,1165.71 3701.11,1169.10 3702.09,1172.79 3701.78,1176.80"/>
    </edge>
    <edge id=":1888216846_0" function="internal">
        <lane id=":1888216846_0_0" index="0" disallow="tram rail_urban rail rail_electric rail_fast ship" speed="13.89" length="4.67" shape="3839.88,1212.44 3841.05,1213.28 3841.43,1214.09 3841.00,1214.88 3839.78,1215.64"/>
    </edge>
    <edge id=":1888216852_0" function="internal">
        <lane id=":1888216852_0_0" index="0" disallow="tram rail_urban rail rail_electric rail_fast ship" speed="13.89" length="9.93" shape="3797.85,1214.34 3794.64,1214.58 3793.19,1215.56 3793.51,1217.28 3795.59,1219.73"/>
    </edge>
    <edge id=":1888216852_1" function="internal">
        <lane id=":1888216852_1_0" index="0" disallow="tram rail_urban rail rail_electric rail_fast ship" speed="13.89" length="12.64" shape="3788.39,1205.19 3788.85,1207.68 3790.59,1209.50 3793.63,1210.65 3797.95,1211.14"/>
    </edge>
    <edge id=":1888216852_2" function="internal">
        <lane id=":1888216852_2_0" index="0" disallow="tram rail_urban rail rail_electric rail_fast ship" speed="13.89" length="16.74" shape="3788.39,1205.19 3788.66,1208.81 3789.96,1212.44 3792.27,1216.08 3795.59,1219.73"/>
    </edge>
    <edge id=":1888216852_3" function="internal">
        <lane id=":1888216852_3_0" index="0" disallow="tram rail_urban rail rail_electric rail_fast ship" speed="13.89" length="15.90" shape="3782.16,1210.18 3785.89,1211.08 3789.92,1211.28 3794.03,1211.18 3797.95,1211.14"/>
    </edge>
    <edge id=":1888216852_4" function="internal">
        <lane id=":1888216852_4_0" index="0" disallow="tram rail_urban rail rail_electric rail_fast ship" speed="13.89" length="11.38" shape="3782.16,1210.18 3785.71,1211.96 3789.26,1214.34 3791.70,1216.30"/>
    </edge>
    <edge id=":1888216852_5" function="internal">
        <lane id=":1888216852_5_0" index="0" disallow="tram rail_urban rail rail_electric rail_fast ship" speed="13.89" length="5.19" shape="3791.70,1216.30 3792.62,1217.04 3795.59,1219.73"/>
    </edge>
    <edge id=":1888243068_0" function="internal">
        <lane id=":1888243068_0_0" index="0" disallow="tram rail_urban rail rail_electric rail_fast ship" speed="13.89" length="11.21" shape="3533.20,1085.54 3523.16,1080.55"/>
    </edge>
    <edge id=":1888243068_1" function="internal">
        <lane id=":1888243068_1_0" index="0" disallow="tram rail_urban rail rail_electric rail_fast ship" speed="13.89" length="11.22" shape="3524.58,1077.68 3534.63,1082.67"/>
    </edge>
    <edge id=":1888243068_2" function="internal">
        <lane id=":1888243068_2_0" index="0" disallow="tram rail_urban rail rail_electric rail_fast ship" speed="13.89" length="9.12" shape="3525.56,1088.16 3526.38,1085.76 3526.26,1083.69 3525.18,1081.95 3523.16,1080.55"/>
    </edge>
    <edge id=":1888243068_3" function="internal">
        <lane id=":1888243068_3_0" index="0" disallow="tram rail_urban rail rail_electric rail_fast ship" speed="13.89" length="11.88" shape="3525.56,1088.16 3527.64,1084.82 3529.85,1082.79 3532.18,1082.08 3534.63,1082.67"/>
    </edge>
    <edge id=":1888243086_0" function="internal">
        <lane id=":1888243086_0_0" index="0" disallow="tram rail_urban rail rail_electric rail_fast ship" speed="13.89" length="13.48" shape="3582.99,1109.57 3579.95,1107.81 3577.11,1106.27 3574.23,1104.82 3571.05,1103.33"/>
    </edge>
    <edge id=":1888243086_1" function="internal">
        <lane id=":1888243086_1_0" index="0" disallow="tram rail_urban rail rail_electric rail_fast ship" speed="13.89" length="5.65" shape="3582.99,1109.57 3580.09,1107.24 3579.15,1105.56"/>
    </edge>
    <edge id=":1888243086_2" function="internal">
        <lane id=":1888243086_2_0" index="0" disallow="tram rail_urban rail rail_electric rail_fast ship" speed="13.89" length="2.34" shape="3582.99,1109.57 3582.37,1108.27 3582.43,1107.37"/>
    </edge>
    <edge id=":1888243086_7" function="internal">
        <lane id=":1888243086_7_0" index="0" disallow="tram rail_urban rail rail_electric rail_fast ship" speed="13.89" length="8.03" shape="3579.15,1105.56 3578.57,1104.52 3578.44,1101.40 3579.69,1097.90"/>
    </edge>
    <edge id=":1888243086_8" function="internal">
        <lane id=":1888243086_8_0" index="0" disallow="tram rail_urban rail rail_electric rail_fast ship" speed="13.89" length="2.34" shape="3582.43,1107.37 3583.18,1106.89 3584.62,1106.81"/>
    </edge>
    <edge id=":1888243086_3" function="internal">